LTspice 24.1.9 for Windows
Circuit: C:\Users\joann\Desktop\magisterka\Quadrature-amplitude-modulator\receiver\simulation\Draft2.net
Start Time: Tue Mar 24 22:44:11 2026
solver = Normal
Maximum thread count: 12
tnom = 27
temp = 27
method = trap
Direct Newton iteration for .op point succeeded.
Total elapsed time: 0.191 seconds.

Files loaded:
C:\Users\joann\Desktop\magisterka\Quadrature-amplitude-modulator\receiver\simulation\Draft2.net
C:\Users\joann\AppData\Local\LTspice\lib\cmp\standard.bjt
C:\Users\joann\AppData\Local\LTspice\lib\sub\NE555.sub

