LTspice 24.1.9 for Windows
Circuit: C:\Users\joann\Desktop\magisterka\Quadrature-amplitude-modulator\receiver\simulation\Draft4.net
Start Time: Wed Mar 25 20:35:18 2026
solver = Normal
Maximum thread count: 12
tnom = 27
temp = 27
method = trap
Direct Newton iteration for .op point succeeded.
Total elapsed time: 0.094 seconds.

Files loaded:
C:\Users\joann\Desktop\magisterka\Quadrature-amplitude-modulator\receiver\simulation\Draft4.net
C:\Users\joann\AppData\Local\LTspice\lib\cmp\standard.bjt

