LTspice 24.1.9 for Windows
Circuit: C:\Users\joann\Desktop\magisterka\Quadrature-amplitude-modulator\receiver\simulation\Draft3.net
Start Time: Wed Mar 25 20:06:43 2026
solver = Normal
Maximum thread count: 12
tnom = 27
temp = 27
method = trap
Direct Newton iteration for .op point succeeded.
Total elapsed time: 0.263 seconds.

Files loaded:
C:\Users\joann\Desktop\magisterka\Quadrature-amplitude-modulator\receiver\simulation\Draft3.net
C:\Users\joann\AppData\Local\LTspice\lib\sub\MAX74810.sub

