LTspice 24.1.9 for Windows
Circuit: C:\Users\joann\Desktop\magisterka\Quadrature-amplitude-modulator\receiver\band_pass_filter.net
Start Time: Sat Mar  7 19:13:25 2026
solver = Normal
Maximum thread count: 12
tnom = 27
temp = 27
method = trap
.OP point found by inspection.
Total elapsed time: 0.101 seconds.

Files loaded:
C:\Users\joann\Desktop\magisterka\Quadrature-amplitude-modulator\receiver\band_pass_filter.net

